# Generated by ABACUS ModuleIO::CifParser
data_?
_symmetry_space_group_name_H-M   'P 1'
_cell_length_a  11.53519423
_cell_length_b  19.06379173
_cell_length_c  11.53519456
_cell_angle_alpha  90.00000000
_cell_angle_beta 120.00000192
_cell_angle_gamma  90.00000000
_symmetry_Int_Tables_number   1
_chemical_formula_structural   HAu
_chemical_formula_sum   H2Au64
_cell_volume  2196.79607548
_cell_formula_units_Z   1
loop_
 _symmetry_equiv_pos_site_id
 _symmetry_equiv_pos_as_xyz
  1  'x, y, z'
loop_
 _atom_site_type_symbol
 _atom_site_label
 _atom_site_symmetry_multiplicity
 _atom_site_fract_x
 _atom_site_fract_y
 _atom_site_fract_z
 _atom_site_occupancy
  H   H0   1   0.47705100   0.62405800   0.60796800 1.0
  H   H1   1   0.47733600   0.66361400   0.60797300 1.0
 Au  Au2   1   0.04002200   0.09954200   0.04004300 1.0
 Au  Au3   1   0.29001100   0.09946500   0.03999300 1.0
 Au  Au4   1   0.54003200   0.09952100   0.03993100 1.0
 Au  Au5   1   0.79000300   0.09958100   0.03996300 1.0
 Au  Au6   1   0.04005900   0.09958700   0.29002300 1.0
 Au  Au7   1   0.29000400   0.09955200   0.29001200 1.0
 Au  Au8   1   0.54002500   0.09949200   0.28998900 1.0
 Au  Au9   1   0.79007900   0.09951600   0.28995300 1.0
 Au Au10   1   0.04009100   0.09952500   0.53999300 1.0
 Au Au11   1   0.29003000   0.09958600   0.53999500 1.0
 Au Au12   1   0.54001200   0.09956200   0.54000700 1.0
 Au Au13   1   0.79003500   0.09949100   0.54000000 1.0
 Au Au14   1   0.04004600   0.09946400   0.79002000 1.0
 Au Au15   1   0.29004000   0.09952000   0.78998400 1.0
 Au Au16   1   0.54002600   0.09958200   0.78998800 1.0
 Au Au17   1   0.79002000   0.09954700   0.79002400 1.0
 Au Au18   1   0.12327200   0.22291300   0.20657400 1.0
 Au Au19   1   0.37326500   0.22276100   0.20644500 1.0
 Au Au20   1   0.62339400   0.22285800   0.20655800 1.0
 Au Au21   1   0.87337500   0.22297400   0.20665100 1.0
 Au Au22   1   0.12325000   0.22288500   0.45661000 1.0
 Au Au23   1   0.37325900   0.22273900   0.45655400 1.0
 Au Au24   1   0.62348900   0.22269800   0.45655000 1.0
 Au Au25   1   0.87346700   0.22285900   0.45663900 1.0
 Au Au26   1   0.12336800   0.22282700   0.70674500 1.0
 Au Au27   1   0.37330500   0.22277000   0.70673400 1.0
 Au Au28   1   0.62348200   0.22274200   0.70677500 1.0
 Au Au29   1   0.87359300   0.22276200   0.70677700 1.0
 Au Au30   1   0.12336900   0.22287600   0.95670300 1.0
 Au Au31   1   0.37329600   0.22282600   0.95666400 1.0
 Au Au32   1   0.62342400   0.22288900   0.95677400 1.0
 Au Au33   1   0.87345800   0.22291500   0.95675700 1.0
 Au Au34   1   0.20686700   0.34676300   0.12309000 1.0
 Au Au35   1   0.45688000   0.34672200   0.12309600 1.0
 Au Au36   1   0.70685300   0.34683500   0.12306600 1.0
 Au Au37   1   0.95683800   0.34684800   0.12312800 1.0
 Au Au38   1   0.20691100   0.34667000   0.37309400 1.0
 Au Au39   1   0.45684600   0.34646800   0.37300800 1.0
 Au Au40   1   0.70689200   0.34666900   0.37317400 1.0
 Au Au41   1   0.95692600   0.34680100   0.37314900 1.0
 Au Au42   1   0.20683000   0.34667800   0.62316400 1.0
 Au Au43   1   0.45683600   0.34640700   0.62309900 1.0
 Au Au44   1   0.70703400   0.34649300   0.62317000 1.0
 Au Au45   1   0.95691200   0.34671100   0.62315900 1.0
 Au Au46   1   0.20687900   0.34674000   0.87317900 1.0
 Au Au47   1   0.45682200   0.34667200   0.87320800 1.0
 Au Au48   1   0.70697600   0.34665500   0.87314200 1.0
 Au Au49   1   0.95693800   0.34674500   0.87315700 1.0
 Au Au50   1   0.04035400   0.47414400   0.03952100 1.0
 Au Au51   1   0.29034900   0.47406400   0.03960600 1.0
 Au Au52   1   0.54030300   0.47406300   0.03952200 1.0
 Au Au53   1   0.79036300   0.47410900   0.03955300 1.0
 Au Au54   1   0.04036900   0.47411900   0.28954300 1.0
 Au Au55   1   0.29041900   0.47401800   0.28963100 1.0
 Au Au56   1   0.54035900   0.47397300   0.28955300 1.0
 Au Au57   1   0.79034700   0.47409900   0.28950400 1.0
 Au Au58   1   0.04040900   0.47407200   0.53958900 1.0
 Au Au59   1   0.29035000   0.47383700   0.53955600 1.0
 Au Au60   1   0.54039400   0.47348800   0.53947100 1.0
 Au Au61   1   0.79034500   0.47397000   0.53953900 1.0
 Au Au62   1   0.04029000   0.47408200   0.78955800 1.0
 Au Au63   1   0.29032400   0.47404800   0.78955800 1.0
 Au Au64   1   0.54032900   0.47377800   0.78959000 1.0
 Au Au65   1   0.79030100   0.47403300   0.78947800 1.0

