data_none

_audit_creation_method generated by ABACUS

_cell_length_a 10.2106
_cell_length_b 30.2527
_cell_length_c 10.2106
_cell_angle_alpha 90
_cell_angle_beta 60
_cell_angle_gamma 90

loop_
_atom_site_label
_atom_site_fract_x
_atom_site_fract_y
_atom_site_fract_z
Cu 0.05 0.396659 0.05
Cu 0.3 0.396659 0.05
Cu 0.55 0.396659 0.05
Cu 0.8 0.396659 0.05
Cu 0.05 0.396659 0.3
Cu 0.3 0.396659 0.3
Cu 0.55 0.396659 0.3
Cu 0.8 0.396659 0.3
Cu 0.05 0.396659 0.55
Cu 0.3 0.396659 0.55
Cu 0.55 0.396659 0.55
Cu 0.8 0.396659 0.55
Cu 0.05 0.396659 0.8
Cu 0.3 0.396659 0.8
Cu 0.55 0.396659 0.8
Cu 0.8 0.396659 0.8
Cu 0.133333 0.465553 0.133333
Cu 0.383333 0.465553 0.133333
Cu 0.633333 0.465553 0.133333
Cu 0.883333 0.465553 0.133333
Cu 0.133333 0.465553 0.383333
Cu 0.383333 0.465553 0.383333
Cu 0.633333 0.465553 0.383333
Cu 0.883333 0.465553 0.383333
Cu 0.133333 0.465553 0.633333
Cu 0.383333 0.465553 0.633333
Cu 0.633333 0.465553 0.633333
Cu 0.883333 0.465553 0.633333
Cu 0.133333 0.465553 0.883333
Cu 0.383333 0.465553 0.883333
Cu 0.633333 0.465553 0.883333
Cu 0.883333 0.465553 0.883333
Cu 0.965895 0.532499 0.217576
Cu 0.219327 0.531881 0.215945
Cu 0.464644 0.531946 0.220073
Cu 0.714066 0.531879 0.215951
Cu 0.970165 0.531903 0.464834
Cu 0.213719 0.533355 0.46977
Cu 0.465828 0.533369 0.469812
Cu 0.714341 0.531881 0.464829
Cu 0.964965 0.533595 0.716463
Cu 0.215911 0.532477 0.717531
Cu 0.467921 0.533595 0.716485
Cu 0.717348 0.533062 0.714705
Cu 0.96589 0.532478 0.967236
Cu 0.216267 0.532478 0.967238
Cu 0.468336 0.532809 0.964993
Cu 0.71604 0.532812 0.964992
Cu 0.050603 0.600177 0.047692
Cu 0.299584 0.599435 0.05113
Cu 0.544602 0.599124 0.059692
Cu 0.798222 0.599434 0.051097
Cu 0.059256 0.59912 0.289031
Cu 0.297636 0.599939 0.303897
Cu 0.547324 0.599938 0.30389
Cu 0.800614 0.599112 0.289026
Cu 0.046425 0.603801 0.550406
Cu 0.298388 0.600281 0.552032
Cu 0.552035 0.603795 0.550387
Cu 0.816187 0.595908 0.516553
Cu 0.050244 0.599835 0.800933
Cu 0.297683 0.599832 0.800923
Cu 0.542414 0.602148 0.812256
Cu 0.794173 0.602156 0.812225
N 0.683998 0.641379 0.648693
N 0.815886 0.641396 0.648734
