# Generated by ABACUS ModuleIO::CifParser
data_?
_symmetry_space_group_name_H-M   'P 1'
_cell_length_a  12.32269418
_cell_length_b  19.99999167
_cell_length_c  12.32259479
_cell_angle_alpha  90.00000000
_cell_angle_beta 120.00130035
_cell_angle_gamma  90.00000000
_symmetry_Int_Tables_number   1
_chemical_formula_structural   CPtH
_chemical_formula_sum   C54PtH12
_cell_volume  2630.04145412
_cell_formula_units_Z   1
loop_
 _symmetry_equiv_pos_site_id
 _symmetry_equiv_pos_as_xyz
  1  'x, y, z'
loop_
 _atom_site_type_symbol
 _atom_site_label
 _atom_site_symmetry_multiplicity
 _atom_site_fract_x
 _atom_site_fract_y
 _atom_site_fract_z
 _atom_site_occupancy
  C   C0   1   0.02615900   0.50297800   0.02860000 1.0
  C   C1   1   0.15982300   0.50081100   0.09658500 1.0
  C   C2   1   0.22785700   0.50201300   0.03144500 1.0
  C   C3   1   0.36158400   0.50366300   0.09944200 1.0
  C   C4   1   0.42741200   0.50219100   0.03133900 1.0
  C   C5   1   0.56039100   0.50286400   0.09675300 1.0
  C   C6   1   0.62604200   0.50142400   0.02849200 1.0
  C   C7   1   0.75902200   0.50172200   0.09408900 1.0
  C   C8   1   0.82478700   0.50392000   0.02589200 1.0
  C   C9   1   0.95843200   0.50185200   0.09411500 1.0
  C  C10   1   0.02448400   0.49688900   0.22708300 1.0
  C  C11   1   0.15767600   0.49415400   0.29461100 1.0
  C  C12   1   0.22588800   0.49781200   0.22982100 1.0
  C  C13   1   0.36019000   0.50123800   0.29949100 1.0
  C  C14   1   0.42793100   0.50631200   0.23271900 1.0
  C  C15   1   0.56206000   0.50969700   0.29971400 1.0
  C  C16   1   0.62756700   0.50531700   0.23060900 1.0
  C  C17   1   0.76047500   0.50238800   0.29527800 1.0
  C  C18   1   0.82592100   0.49999900   0.22739400 1.0
  C  C19   1   0.95871700   0.49647500   0.29441400 1.0
  C  C20   1   0.02565100   0.49425000   0.42834500 1.0
  C  C21   1   0.15781200   0.49061600   0.49567600 1.0
  C  C22   1   0.22228900   0.48979300   0.42779200 1.0
  C  C23   1   0.35421400   0.49024400   0.49418700 1.0
  C  C24   1   0.42047000   0.49966900   0.43121100 1.0
  C  C25   1   0.63516200   0.51629500   0.43125800 1.0
  C  C26   1   0.76476500   0.50949600   0.49593600 1.0
  C  C27   1   0.82890300   0.50191700   0.42850800 1.0
  C  C28   1   0.96095900   0.49742600   0.49601700 1.0
  C  C29   1   0.02809100   0.49802900   0.62996800 1.0
  C  C30   1   0.16055500   0.49544700   0.69732000 1.0
  C  C31   1   0.22523200   0.49143700   0.62968700 1.0
  C  C32   1   0.35802200   0.49115800   0.69723800 1.0
  C  C33   1   0.42334000   0.49032100   0.63027700 1.0
  C  C34   1   0.55384600   0.49767400   0.69235000 1.0
  C  C35   1   0.76706700   0.52155500   0.69533900 1.0
  C  C36   1   0.83224700   0.51128100   0.63103000 1.0
  C  C37   1   0.96367700   0.50357000   0.69769200 1.0
  C  C38   1   0.02864100   0.50440200   0.83064600 1.0
  C  C39   1   0.16177100   0.50138700   0.89819900 1.0
  C  C40   1   0.22764200   0.49806900   0.83094400 1.0
  C  C41   1   0.36057700   0.49822400   0.89810100 1.0
  C  C42   1   0.42623900   0.49569800   0.83027300 1.0
  C  C43   1   0.55920100   0.49912700   0.89475300 1.0
  C  C44   1   0.62419400   0.50160200   0.82474400 1.0
  C  C45   1   0.75830700   0.50760800   0.89268100 1.0
  C  C46   1   0.82597100   0.51297500   0.82625600 1.0
  C  C47   1   0.96021800   0.50722000   0.89529900 1.0
  C  C48   1   0.62915400   0.65710500   0.59426000 1.0
  C  C49   1   0.76521500   0.67643100   0.67567300 1.0
  C  C50   1   0.77188200   0.75147300   0.70619600 1.0
  C  C51   1   0.69243500   0.76825400   0.76634100 1.0
  C  C52   1   0.55618100   0.74573700   0.68527200 1.0
  C  C53   1   0.54958700   0.67064500   0.65448500 1.0
 Pt Pt54   1   0.58606200   0.54349300   0.56016000 1.0
  H  H55   1   0.50295000   0.75522400   0.73336500 1.0
  H  H56   1   0.59116700   0.68767000   0.50835800 1.0
  H  H57   1   0.81856400   0.66535900   0.62832100 1.0
  H  H58   1   0.80828800   0.64751700   0.76316300 1.0
  H  H59   1   0.87004100   0.76584600   0.76895200 1.0
  H  H60   1   0.73879200   0.78067100   0.61955300 1.0
  H  H61   1   0.69608500   0.82219400   0.78478100 1.0
  H  H62   1   0.73289300   0.74318300   0.85811300 1.0
  H  H63   1   0.51042800   0.77457300   0.59732300 1.0
  H  H64   1   0.45152200   0.65563200   0.59291500 1.0
  H  H65   1   0.58555400   0.64175800   0.74189600 1.0
  H  H66   1   0.57260000   0.60635700   0.47329800 1.0

