data_none

_audit_creation_method generated by ABACUS

_cell_length_a 10.862
_cell_length_b 10.862
_cell_length_c 10.862
_cell_angle_alpha 90
_cell_angle_beta 90
_cell_angle_gamma 90

loop_
_atom_site_label
_atom_site_fract_x
_atom_site_fract_y
_atom_site_fract_z
Li 0.502448 0.502448 0.502447
Si 0.126734 0.378235 0.126734
Si 0.127524 0.377028 0.628171
Si 0.127528 0.877666 0.127528
Si 0.126737 0.878472 0.626961
Si 0.628171 0.377028 0.127524
Si 0.632185 0.373056 0.632185
Si 0.626961 0.878472 0.126737
Si 0.628183 0.877693 0.628183
Si 0.002606 0.002606 0.252277
Si 0.002603 0.002603 0.752906
Si 0.002607 0.502599 0.252869
Si 0.002607 0.502599 0.752333
Si 0.502599 0.002607 0.252869
Si 0.502599 0.002607 0.752333
Si 0.502617 0.502617 0.251067
Si 0.502607 0.502607 0.754159
Si 0.126734 0.126734 0.378235
Si 0.127528 0.127528 0.877666
Si 0.127524 0.628171 0.377028
Si 0.126737 0.626961 0.878472
Si 0.628171 0.127524 0.377028
Si 0.626961 0.126737 0.878472
Si 0.632185 0.632185 0.373056
Si 0.628183 0.628183 0.877693
Si 0.002606 0.252277 0.002606
Si 0.002607 0.252869 0.502599
Si 0.002603 0.752906 0.002603
Si 0.002607 0.752333 0.502599
Si 0.502599 0.252869 0.002607
Si 0.502617 0.251067 0.502617
Si 0.502599 0.752333 0.002607
Si 0.502607 0.754159 0.502607
Si 0.373018 0.373018 0.373018
Si 0.37703 0.37703 0.877694
Si 0.37703 0.877694 0.37703
Si 0.378244 0.878479 0.878479
Si 0.877694 0.37703 0.37703
Si 0.878479 0.378244 0.878478
Si 0.878479 0.878479 0.378244
Si 0.877686 0.877686 0.877686
Si 0.252277 0.002606 0.002606
Si 0.252869 0.002607 0.5026
Si 0.252869 0.502599 0.002607
Si 0.251067 0.502617 0.502617
Si 0.752906 0.002603 0.002603
Si 0.752333 0.002607 0.502599
Si 0.752333 0.502599 0.002607
Si 0.754159 0.502607 0.502607
Si 0.378235 0.126734 0.126734
Si 0.377028 0.127524 0.628171
Si 0.377028 0.628171 0.127524
Si 0.373056 0.632185 0.632185
Si 0.877666 0.127528 0.127528
Si 0.878472 0.126737 0.626961
Si 0.878472 0.626961 0.126737
Si 0.877693 0.628183 0.628183
Si 0.249049 0.249049 0.249049
Si 0.252375 0.252375 0.752837
Si 0.252375 0.752837 0.252375
Si 0.249051 0.756165 0.756165
Si 0.752837 0.252375 0.252375
Si 0.756165 0.249051 0.756165
Si 0.756165 0.756165 0.249051
Si 0.752848 0.752848 0.752848
