data_none

_audit_creation_method generated by ABACUS

_cell_length_a 11.1874
_cell_length_b 18.8509
_cell_length_c 11.1874
_cell_angle_alpha 90
_cell_angle_beta 120
_cell_angle_gamma 90

loop_
_atom_site_label
_atom_site_fract_x
_atom_site_fract_y
_atom_site_fract_z
C 0.51603 0.442409 0.632389
O 0.500676 0.504604 0.62466
Pt 0.044552 0 0.022276
Pt 0.294552 0 0.022276
Pt 0.544552 0 0.022276
Pt 0.794552 0 0.022276
Pt 0.044552 0 0.272276
Pt 0.294552 0 0.272276
Pt 0.544552 0 0.272276
Pt 0.794552 0 0.272276
Pt 0.294552 0 0.522276
Pt 0.544552 0 0.522276
Pt 0.794552 0 0.522276
Pt 0.044552 0 0.522276
Pt 0.044552 0 0.772276
Pt 0.294552 0 0.772276
Pt 0.544552 0 0.772276
Pt 0.794552 0 0.772276
Pt 0.877965 0.120715 0.188648
Pt 0.877957 0.120724 0.43894
Pt 0.877522 0.120225 0.938547
Pt 0.628169 0.120687 0.188914
Pt 0.378426 0.120554 0.188761
Pt 0.128279 0.120536 0.18873
Pt 0.877517 0.120226 0.688626
Pt 0.128346 0.120625 0.939032
Pt 0.627482 0.121482 0.439018
Pt 0.378435 0.120545 0.939379
Pt 0.128563 0.120548 0.439102
Pt 0.627497 0.121478 0.938124
Pt 0.627658 0.12187 0.688657
Pt 0.128277 0.120535 0.689229
Pt 0.37841 0.121137 0.438783
Pt 0.378404 0.121132 0.689311
Pt 0.961257 0.238248 0.855337
Pt 0.96112 0.238842 0.104536
Pt 0.961173 0.239117 0.355256
Pt 0.461723 0.239176 0.10556
Pt 0.711251 0.239311 0.105239
Pt 0.711263 0.23931 0.355396
Pt 0.961151 0.238841 0.605979
Pt 0.212241 0.238671 0.105791
Pt 0.46251 0.241101 0.358135
Pt 0.21227 0.238669 0.855894
Pt 0.710027 0.240725 0.854537
Pt 0.710056 0.240717 0.604928
Pt 0.211009 0.239041 0.355048
Pt 0.462504 0.241113 0.853801
Pt 0.460895 0.24125 0.605177
Pt 0.211003 0.239045 0.605373
Pt 0.042848 0.359863 0.270684
Pt 0.544544 0.360237 0.272027
Pt 0.042855 0.359871 0.521331
Pt 0.544542 0.360274 0.021615
Pt 0.045175 0.359782 0.02237
Pt 0.793587 0.360148 0.271357
Pt 0.295089 0.359846 0.022134
Pt 0.800412 0.359104 0.774834
Pt 0.795163 0.360018 0.022446
Pt 0.795217 0.359993 0.521925
Pt 0.045204 0.359768 0.772058
Pt 0.292735 0.3596 0.269267
Pt 0.542809 0.367582 0.519496
Pt 0.542821 0.367672 0.772329
Pt 0.292778 0.359639 0.772658
Pt 0.286973 0.359972 0.518088
