data_none

_audit_creation_method generated by ABACUS

_cell_length_a 5.72756
_cell_length_b 5.72756
_cell_length_c 13.75
_cell_angle_alpha 90
_cell_angle_beta 90
_cell_angle_gamma 90

loop_
_atom_site_label
_atom_site_fract_x
_atom_site_fract_y
_atom_site_fract_z
Al 0 0 0.290909
Al 0.5 0 0.290909
Al 0 0.5 0.290909
Al 0.5 0.5 0.290909
Al 0.25 0.25 0.438182
Al 0.75 0.25 0.438182
Al 0.25 0.75 0.438182
Al 0.75 0.75 0.438182
Al 0.004697 0.995392 0.567687
Al 0.495303 0.995392 0.567687
Al 0.004697 0.504608 0.567687
Al 0.495303 0.504608 0.567687
Au 0.75 0.25 0.681994
