data_none

_audit_creation_method generated by ABACUS

_cell_length_a 11.5352
_cell_length_b 19.0638
_cell_length_c 11.5352
_cell_angle_alpha 90
_cell_angle_beta 120
_cell_angle_gamma 90

loop_
_atom_site_label
_atom_site_fract_x
_atom_site_fract_y
_atom_site_fract_z
H 0.50307 0.575007 0.645413
H 0.43706 0.57507 0.578768
Au 0.04 0.1 0.04
Au 0.29 0.1 0.04
Au 0.54 0.1 0.04
Au 0.79 0.1 0.04
Au 0.04 0.1 0.29
Au 0.29 0.1 0.29
Au 0.54 0.1 0.29
Au 0.79 0.1 0.29
Au 0.04 0.1 0.54
Au 0.29 0.1 0.54
Au 0.54 0.1 0.54
Au 0.79 0.1 0.54
Au 0.04 0.1 0.79
Au 0.29 0.1 0.79
Au 0.54 0.1 0.79
Au 0.79 0.1 0.79
Au 0.123333 0.223512 0.206667
Au 0.373333 0.223512 0.206667
Au 0.623333 0.223512 0.206667
Au 0.873333 0.223512 0.206667
Au 0.123333 0.223512 0.456667
Au 0.373333 0.223512 0.456667
Au 0.623333 0.223512 0.456667
Au 0.873333 0.223512 0.456667
Au 0.123333 0.223512 0.706667
Au 0.373333 0.223512 0.706667
Au 0.623333 0.223512 0.706667
Au 0.873333 0.223512 0.706667
Au 0.123333 0.223512 0.956667
Au 0.373333 0.223512 0.956667
Au 0.623333 0.223512 0.956667
Au 0.873333 0.223512 0.956667
Au 0.206109 0.347219 0.121318
Au 0.457767 0.347383 0.123598
Au 0.706661 0.347537 0.123472
Au 0.956286 0.347615 0.123884
Au 0.205402 0.346398 0.370525
Au 0.455016 0.346576 0.37131
Au 0.706393 0.347321 0.373728
Au 0.956692 0.347547 0.373486
Au 0.206287 0.346464 0.624225
Au 0.456728 0.346502 0.62345
Au 0.708814 0.346584 0.6251
Au 0.956535 0.347382 0.622349
Au 0.206621 0.347397 0.873506
Au 0.455937 0.346455 0.87389
Au 0.709628 0.346388 0.874759
Au 0.95882 0.347201 0.874029
Au 0.040995 0.475369 0.039297
Au 0.290147 0.475124 0.038838
Au 0.540381 0.47535 0.041947
Au 0.79257 0.475615 0.042065
Au 0.038227 0.475635 0.287735
Au 0.289115 0.473986 0.288416
Au 0.539594 0.475131 0.288373
Au 0.789932 0.474585 0.290383
Au 0.03838 0.475329 0.53992
Au 0.282721 0.468963 0.535511
Au 0.543371 0.468494 0.536736
Au 0.791875 0.475119 0.540678
Au 0.041434 0.475121 0.790122
Au 0.291227 0.474382 0.789061
Au 0.544783 0.468937 0.797636
Au 0.791857 0.473933 0.791129
